Version 4
SHEET 1 928 740
WIRE 384 208 240 208
WIRE 240 256 240 208
WIRE 256 256 240 256
WIRE 400 256 368 256
WIRE 240 288 240 256
WIRE 256 288 240 288
WIRE 576 288 368 288
WIRE 496 320 368 320
WIRE 240 352 240 288
WIRE 256 352 240 352
WIRE 576 368 576 288
WIRE 240 384 240 352
WIRE 256 384 240 384
WIRE 384 384 384 208
WIRE 384 384 368 384
WIRE 496 400 496 320
WIRE 384 416 384 384
WIRE 384 416 368 416
WIRE 240 448 240 384
WIRE 256 448 240 448
WIRE 240 480 240 448
FLAG 240 480 0
FLAG 400 256 out
IOPIN 400 256 Out
FLAG 496 480 0
FLAG 576 448 0
SYMBOL voltage 496 384 R0
WINDOW 123 0 0 Left 0
WINDOW 39 0 0 Left 0
SYMATTR InstName V1
SYMATTR Value PULSE(0 5 1u 1n 1n 1m 2m)
SYMBOL voltage 576 352 R0
WINDOW 123 0 0 Left 0
WINDOW 39 0 0 Left 0
SYMATTR InstName V2
SYMATTR Value PULSE(0 5 1u 1n 1n 2m 4m)
SYMBOL 74hc32a 304 352 R0
SYMATTR InstName U1
TEXT 248 136 Left 2 !.lib 74hc_full.lib
TEXT 248 160 Left 2 !.param vcc=5 tripdt=1n speed=1
TEXT 248 600 Left 2 !.tran 0 10m 0 1u
